# Packages
 &PACKAGES
  useGMRedi = .TRUE.,
  useKPP    = .TRUE.,
  useCAL    = .TRUE.,
  useEXF    = .TRUE.,
  useSEAICE = .TRUE.,
  useDiagnostics = .TRUE.,
  useOBCS   = .TRUE.,
#  useMNC    = .TRUE.,
 &
